%nprocshared=8
%mem=6GB
%chk=ligand.chk
#p opt hf/6-31++g(d,p) nosymm geom=connectivity

BindingDB_50317213_mol_1

0 1
 C                  8.70700000   -8.20800000    1.39900000
 C                  8.47400000   -7.52900000    0.03600000
 C                 10.20500000   -8.51900000    1.56800000
 C                  9.28200000   -6.22000000   -0.02800000
 C                 11.01200000   -7.20900000    1.50100000
 C                 10.78400000   -6.53300000    0.13500000
 C                 10.66200000   -9.46200000    0.43900000
 C                 10.43400000   -8.78300000   -0.92500000
 C                  8.93400000   -8.47100000   -1.09200000
 C                 11.26400000   -7.47900000   -0.98700000
 C                 11.60700000   -7.30200000   -3.40800000
 C                 11.41600000   -6.53200000   -4.64800000
 O                 12.20500000   -8.40000000   -3.45400000
 N                 10.77200000   -5.22300000   -4.40800000
 C                 10.13500000   -4.87700000   -5.68500000
 C                  9.52700000   -6.19600000   -6.15900000
 C                 10.49800000   -7.26300000   -5.64800000
 C                 11.73600000   -4.19100000   -3.97300000
 C                 10.99200000   -2.96000000   -3.42900000
 C                 10.11500000   -3.29900000   -2.22000000
 C                  9.93300000   -1.97100000   -1.47700000
 C                 11.06800000   -1.05000000   -1.95100000
 C                 11.94600000   -1.90000000   -2.87600000
 N                 11.13800000   -6.81800000   -2.23900000
 H                  8.13200000   -9.13400000    1.45000000
 H                  8.37800000   -7.54500000    2.20000000
 H                  7.41300000   -7.30800000   -0.08400000
 H                 10.37100000   -9.00000000    2.53300000
 H                  9.10400000   -5.73200000   -0.98600000
 H                  8.96000000   -5.55100000    0.77000000
 H                 12.07400000   -7.42600000    1.62900000
 H                 10.69100000   -6.54000000    2.29900000
 H                 11.35500000   -5.60500000    0.09800000
 H                 10.09200000  -10.39100000    0.48500000
 H                 11.72100000   -9.69200000    0.56000000
 H                 10.75000000   -9.46500000   -1.71400000
 H                  8.36100000   -9.39800000   -1.04900000
 H                  8.76100000   -7.99700000   -2.05900000
 H                 12.31700000   -7.71400000   -0.81800000
 H                 12.38800000   -6.37600000   -5.12100000
 H                  9.36200000   -4.12100000   -5.55100000
 H                 10.87500000   -4.53600000   -6.41100000
 H                  8.54900000   -6.33500000   -5.69700000
 H                  9.43800000   -6.22200000   -7.24600000
 H                  9.93500000   -8.07300000   -5.18000000
 H                 11.09200000   -7.65900000   -6.47300000
 H                 12.36600000   -4.59000000   -3.17700000
 H                 12.37800000   -3.89300000   -4.80400000
 H                 10.37700000   -2.51400000   -4.21200000
 H                 10.63600000   -4.00500000   -1.57200000
 H                  9.15700000   -3.71600000   -2.53300000
 H                  8.96900000   -1.52900000   -1.73300000
 H                  9.99100000   -2.13100000   -0.40000000
 H                 10.64900000   -0.21300000   -2.51100000
 H                 11.64800000   -0.67700000   -1.10700000
 H                 12.73800000   -2.37400000   -2.29400000
 H                 12.37800000   -1.29800000   -3.67700000
 H                 10.69700000   -5.95500000   -2.25900000

 1 2 1.0 3 1.0 25 1.0 26 1.0
 2 4 1.0 9 1.0 27 1.0
 3 5 1.0 7 1.0 28 1.0
 4 6 1.0 29 1.0 30 1.0
 5 6 1.0 31 1.0 32 1.0
 6 10 1.0 33 1.0
 7 8 1.0 34 1.0 35 1.0
 8 9 1.0 10 1.0 36 1.0
 9 37 1.0 38 1.0
 10 24 1.0 39 1.0
 11 12 1.0 13 2.0 24 1.0
 12 14 1.0 17 1.0 40 1.0
 13
 14 15 1.0 18 1.0
 15 16 1.0 41 1.0 42 1.0
 16 17 1.0 43 1.0 44 1.0
 17 45 1.0 46 1.0
 18 19 1.0 47 1.0 48 1.0
 19 20 1.0 23 1.0 49 1.0
 20 21 1.0 50 1.0 51 1.0
 21 22 1.0 52 1.0 53 1.0
 22 23 1.0 54 1.0 55 1.0
 23 56 1.0 57 1.0
 24 58 1.0
 25
 26
 27
 28
 29
 30
 31
 32
 33
 34
 35
 36
 37
 38
 39
 40
 41
 42
 43
 44
 45
 46
 47
 48
 49
 50
 51
 52
 53
 54
 55
 56
 57
 58

